rawData/ieee123_1ph/BranchData.dss
New Line.L1   Phases=1  Bus1=1  Bus2=2  r1=1e-06  x1=1e-06
New Line.L2   Phases=1  Bus1=2  Bus2=3  r1=0.0232  x1=0.0475
New Line.L3   Phases=1  Bus1=3  Bus2=4  r1=0.0441  x1=0.0447
New Line.L4   Phases=1  Bus1=3  Bus2=5  r1=0.0629  x1=0.0638
New Line.L5   Phases=1  Bus1=3  Bus2=9  r1=0.0174  x1=0.0356
New Line.L6   Phases=1  Bus1=5  Bus2=6  r1=0.0503  x1=0.051
New Line.L7   Phases=1  Bus1=5  Bus2=7  r1=0.0818  x1=0.0829
New Line.L8   Phases=1  Bus1=7  Bus2=8  r1=0.0629  x1=0.0638
New Line.L9   Phases=1  Bus1=9  Bus2=10  r1=0.0116  x1=0.0238
New Line.L10   Phases=1  Bus1=10  Bus2=14  r1=0.0566  x1=0.0574
New Line.L11   Phases=1  Bus1=10  Bus2=11  r1=0.0566  x1=0.0574
New Line.L12   Phases=1  Bus1=10  Bus2=15  r1=0.0174  x1=0.0356
New Line.L13   Phases=1  Bus1=11  Bus2=126  r1=1e-06  x1=1e-06
New Line.L14   Phases=1  Bus1=126  Bus2=16  r1=1e-06  x1=1e-06
New Line.L15   Phases=1  Bus1=15  Bus2=36  r1=0.0378  x1=0.0383
New Line.L16   Phases=1  Bus1=15  Bus2=20  r1=0.0478  x1=0.098
New Line.L17   Phases=1  Bus1=16  Bus2=13  r1=0.0629  x1=0.0638
New Line.L18   Phases=1  Bus1=16  Bus2=12  r1=0.0629  x1=0.0638
New Line.L19   Phases=1  Bus1=17  Bus2=18  r1=0.0944  x1=0.0957
New Line.L20   Phases=1  Bus1=17  Bus2=19  r1=0.0881  x1=0.0893
New Line.L21   Phases=1  Bus1=20  Bus2=21  r1=0.0629  x1=0.0638
New Line.L22   Phases=1  Bus1=20  Bus2=23  r1=0.0174  x1=0.0356
New Line.L23   Phases=1  Bus1=21  Bus2=22  r1=0.0818  x1=0.0829
New Line.L24   Phases=1  Bus1=23  Bus2=24  r1=0.1322  x1=0.134
New Line.L25   Phases=1  Bus1=23  Bus2=25  r1=0.0145  x1=0.0297
New Line.L26   Phases=1  Bus1=25  Bus2=26  r1=0.1385  x1=0.1404
New Line.L27   Phases=1  Bus1=25  Bus2=27  r1=0.0159  x1=0.0327
New Line.L28   Phases=1  Bus1=27  Bus2=127  r1=1e-06  x1=1e-06
New Line.L29   Phases=1  Bus1=127  Bus2=28  r1=0.0203  x1=0.0455
New Line.L30   Phases=1  Bus1=27  Bus2=30  r1=0.0116  x1=0.0238
New Line.L31   Phases=1  Bus1=28  Bus2=29  r1=0.0159  x1=0.0358
New Line.L32   Phases=1  Bus1=28  Bus2=33  r1=0.0566  x1=0.0574
New Line.L33   Phases=1  Bus1=29  Bus2=35  r1=0.1259  x1=0.1276
New Line.L34   Phases=1  Bus1=30  Bus2=31  r1=0.0174  x1=0.0356
New Line.L35   Phases=1  Bus1=31  Bus2=32  r1=0.0203  x1=0.0416
New Line.L36   Phases=1  Bus1=32  Bus2=119  r1=0.0116  x1=0.0238
New Line.L37   Phases=1  Bus1=33  Bus2=34  r1=0.0755  x1=0.0766
New Line.L38   Phases=1  Bus1=36  Bus2=17  r1=0.0252  x1=0.0255
New Line.L39   Phases=1  Bus1=37  Bus2=38  r1=0.0377  x1=0.0845
New Line.L40   Phases=1  Bus1=37  Bus2=42  r1=0.0145  x1=0.0297
New Line.L41   Phases=1  Bus1=38  Bus2=39  r1=0.0755  x1=0.0766
New Line.L42   Phases=1  Bus1=38  Bus2=40  r1=0.0629  x1=0.0638
New Line.L43   Phases=1  Bus1=40  Bus2=41  r1=0.0818  x1=0.0829
New Line.L44   Phases=1  Bus1=42  Bus2=43  r1=0.0818  x1=0.0829
New Line.L45   Phases=1  Bus1=42  Bus2=44  r1=0.0145  x1=0.0297
New Line.L46   Phases=1  Bus1=44  Bus2=45  r1=0.1259  x1=0.1276
New Line.L47   Phases=1  Bus1=44  Bus2=46  r1=0.0116  x1=0.0238
New Line.L48   Phases=1  Bus1=46  Bus2=47  r1=0.0503  x1=0.051
New Line.L49   Phases=1  Bus1=46  Bus2=49  r1=0.0145  x1=0.0297
New Line.L50   Phases=1  Bus1=47  Bus2=48  r1=0.0755  x1=0.0766
New Line.L51   Phases=1  Bus1=49  Bus2=50  r1=0.0087  x1=0.0178
New Line.L52   Phases=1  Bus1=49  Bus2=51  r1=0.0145  x1=0.0297
New Line.L53   Phases=1  Bus1=51  Bus2=52  r1=0.0145  x1=0.0297
New Line.L54   Phases=1  Bus1=52  Bus2=53  r1=0.0145  x1=0.0297
New Line.L55   Phases=1  Bus1=54  Bus2=55  r1=0.0116  x1=0.0238
New Line.L56   Phases=1  Bus1=55  Bus2=56  r1=0.0072  x1=0.0148
New Line.L57   Phases=1  Bus1=56  Bus2=57  r1=0.0159  x1=0.0327
New Line.L58   Phases=1  Bus1=56  Bus2=59  r1=0.0203  x1=0.0416
New Line.L59   Phases=1  Bus1=57  Bus2=58  r1=0.0159  x1=0.0327
New Line.L60   Phases=1  Bus1=59  Bus2=60  r1=0.0629  x1=0.0638
New Line.L61   Phases=1  Bus1=59  Bus2=62  r1=0.0435  x1=0.0891
New Line.L62   Phases=1  Bus1=60  Bus2=61  r1=0.0629  x1=0.0638
New Line.L63   Phases=1  Bus1=62  Bus2=63  r1=0.0319  x1=0.0653
New Line.L64   Phases=1  Bus1=62  Bus2=64  r1=0.048  x1=0.0229
New Line.L65   Phases=1  Bus1=64  Bus2=65  r1=0.0336  x1=0.016
New Line.L66   Phases=1  Bus1=65  Bus2=66  r1=0.0672  x1=0.032
New Line.L67   Phases=1  Bus1=66  Bus2=67  r1=0.0816  x1=0.0389
New Line.L68   Phases=1  Bus1=67  Bus2=68  r1=0.0624  x1=0.0297
New Line.L69   Phases=1  Bus1=69  Bus2=70  r1=0.0503  x1=0.051
New Line.L70   Phases=1  Bus1=69  Bus2=74  r1=0.0159  x1=0.0327
New Line.L71   Phases=1  Bus1=69  Bus2=99  r1=0.0145  x1=0.0297
New Line.L72   Phases=1  Bus1=70  Bus2=71  r1=0.0692  x1=0.0702
New Line.L73   Phases=1  Bus1=71  Bus2=72  r1=0.0818  x1=0.0829
New Line.L74   Phases=1  Bus1=72  Bus2=73  r1=0.0692  x1=0.0702
New Line.L75   Phases=1  Bus1=74  Bus2=75  r1=0.0692  x1=0.0702
New Line.L76   Phases=1  Bus1=74  Bus2=78  r1=0.0116  x1=0.0238
New Line.L77   Phases=1  Bus1=75  Bus2=76  r1=0.0881  x1=0.0893
New Line.L78   Phases=1  Bus1=76  Bus2=77  r1=0.1007  x1=0.1021
New Line.L79   Phases=1  Bus1=78  Bus2=79  r1=0.0232  x1=0.0475
New Line.L80   Phases=1  Bus1=78  Bus2=88  r1=0.0406  x1=0.0831
New Line.L81   Phases=1  Bus1=79  Bus2=80  r1=0.0058  x1=0.0119
New Line.L82   Phases=1  Bus1=80  Bus2=81  r1=0.013  x1=0.0267
New Line.L83   Phases=1  Bus1=80  Bus2=82  r1=0.0275  x1=0.0564
New Line.L84   Phases=1  Bus1=82  Bus2=83  r1=0.0101  x1=0.0208
New Line.L85   Phases=1  Bus1=83  Bus2=84  r1=0.0145  x1=0.0297
New Line.L86   Phases=1  Bus1=83  Bus2=86  r1=0.1699  x1=0.1723
New Line.L87   Phases=1  Bus1=84  Bus2=85  r1=0.0145  x1=0.0297
New Line.L88   Phases=1  Bus1=86  Bus2=87  r1=0.1196  x1=0.1212
New Line.L89   Phases=1  Bus1=88  Bus2=89  r1=0.0261  x1=0.0534
New Line.L90   Phases=1  Bus1=89  Bus2=90  r1=0.0441  x1=0.0447
New Line.L91   Phases=1  Bus1=89  Bus2=91  r1=0.0159  x1=0.0327
New Line.L92   Phases=1  Bus1=91  Bus2=92  r1=0.0566  x1=0.0574
New Line.L93   Phases=1  Bus1=91  Bus2=93  r1=0.013  x1=0.0267
New Line.L94   Phases=1  Bus1=93  Bus2=94  r1=0.0755  x1=0.0766
New Line.L95   Phases=1  Bus1=93  Bus2=95  r1=0.013  x1=0.0267
New Line.L96   Phases=1  Bus1=95  Bus2=96  r1=0.0692  x1=0.0702
New Line.L97   Phases=1  Bus1=95  Bus2=97  r1=0.0174  x1=0.0356
New Line.L98   Phases=1  Bus1=97  Bus2=98  r1=0.0503  x1=0.051
New Line.L99   Phases=1  Bus1=99  Bus2=100  r1=0.0159  x1=0.0327
New Line.L100   Phases=1  Bus1=100  Bus2=101  r1=0.0319  x1=0.0653
New Line.L101   Phases=1  Bus1=101  Bus2=102  r1=0.0174  x1=0.0356
New Line.L102   Phases=1  Bus1=102  Bus2=123  r1=0.0464  x1=0.095
New Line.L103   Phases=1  Bus1=103  Bus2=104  r1=0.0566  x1=0.0574
New Line.L104   Phases=1  Bus1=103  Bus2=107  r1=0.0159  x1=0.0327
New Line.L105   Phases=1  Bus1=104  Bus2=105  r1=0.0818  x1=0.0829
New Line.L106   Phases=1  Bus1=105  Bus2=106  r1=0.1762  x1=0.1786
New Line.L107   Phases=1  Bus1=107  Bus2=108  r1=0.0566  x1=0.0574
New Line.L108   Phases=1  Bus1=107  Bus2=110  r1=0.0188  x1=0.0386
New Line.L109   Phases=1  Bus1=108  Bus2=109  r1=0.1448  x1=0.1467
New Line.L110   Phases=1  Bus1=110  Bus2=111  r1=0.1133  x1=0.1148
New Line.L111   Phases=1  Bus1=110  Bus2=121  r1=0.05797  x1=0.11876
New Line.L112   Phases=1  Bus1=111  Bus2=112  r1=0.0755  x1=0.0766
New Line.L113   Phases=1  Bus1=112  Bus2=113  r1=0.1448  x1=0.1467
New Line.L114   Phases=1  Bus1=112  Bus2=114  r1=0.0315  x1=0.0319
New Line.L115   Phases=1  Bus1=114  Bus2=115  r1=0.1322  x1=0.134
New Line.L116   Phases=1  Bus1=115  Bus2=116  r1=0.0818  x1=0.0829
New Line.L117   Phases=1  Bus1=118  Bus2=37  r1=0.0217  x1=0.0445
New Line.L118   Phases=1  Bus1=117  Bus2=54  r1=0.0232  x1=0.0475
New Line.L119   Phases=1  Bus1=53  Bus2=120  r1=0.029  x1=0.0594
New Line.L120   Phases=1  Bus1=125  Bus2=128  r1=1e-06  x1=1e-06
New Line.L121   Phases=1  Bus1=128  Bus2=69  r1=0.0203  x1=0.0416
New Line.L122   Phases=1  Bus1=124  Bus2=103  r1=0.0145  x1=0.0297
New Line.L123   Phases=1  Bus1=15  Bus2=117  r1=1e-06  x1=1e-06
New Line.L124   Phases=1  Bus1=20  Bus2=118  r1=1e-06  x1=1e-06
New Line.L125   Phases=1  Bus1=62  Bus2=125  r1=1e-06  x1=1e-06
New Line.L126   Phases=1  Bus1=99  Bus2=124  r1=1e-06  x1=1e-06
New Line.L127   Phases=1  Bus1=63  Bus2=122  r1=0.0001  x1=0.0001
